20220422BasementJF_inline.fds
Generated by PyroSim - Version 2022.1.0413
22/04/2022 10:19:34 PM

&HEAD CHID='20220422BasementJF_inline'/
&TIME T_END=800.0/
&DUMP DT_RESTART=300.0, DT_SL3D=0.25/

&MESH ID='MESH', IJK=716,108,16, XB=60.0,239.0,99.5,126.5,0.0,4.0/
&MESH ID='Duct04', IJK=338,25,16, XB=60.0,144.5,126.5,132.75,0.0,4.0/
&MESH ID='Duct07', IJK=480,50,64, XB=144.5,204.5,126.5,132.75,0.0,4.0/
&MESH ID='MESH01', IJK=221,57,8, XB=46.0,156.5,71.0,99.5,0.0,4.0/
&MESH ID='MESH02', IJK=83,40,8, XB=178.0,219.5,79.5,99.5,0.0,4.0/
&MESH ID='MESH03', IJK=55,16,8, XB=204.5,232.0,152.5,160.5,0.0,4.0/
&MESH ID='MESH04', IJK=138,212,16, XB=25.5,60.0,99.5,152.5,0.0,4.0/
&MESH ID='MESH05', IJK=578,78,16, XB=60.0,204.5,132.75,152.25,0.0,4.0/
&MESH ID='MESH06', IJK=148,32,16, XB=204.5,241.5,126.5,134.5,0.0,4.0/
&MESH ID='MESH07', IJK=32,80,16, XB=219.5,227.5,79.5,99.5,0.0,4.0/
&MESH ID='MESH08', IJK=86,80,16, XB=156.5,178.0,79.5,99.5,0.0,4.0/
&MESH ID='MESH09', IJK=578,33,16, XB=60.0,204.5,152.25,160.5,0.0,4.0/
&MESH ID='MESH10', IJK=110,72,16, XB=204.5,232.0,134.5,152.5,0.0,4.0/
&MESH ID='MESH11', IJK=69,17,8, XB=25.5,60.0,152.5,161.0,0.0,4.0/
&MESH ID='MESH12', IJK=10,34,8, XB=30.0,35.0,82.5,99.5,0.0,4.0/

&SPEC ID='WATER VAPOR'/

&PART ID='Water',
      SPEC_ID='WATER VAPOR',
      DIAMETER=500.0,
      MONODISPERSE=.TRUE.,
      AGE=60.0,
      SAMPLING_FACTOR=1/

&REAC ID='POLYURETHANE_GM27',
      FYI='SFPE Handbook, GM27',
      FUEL='REAC_FUEL',
      C=1.0,
      H=1.7,
      O=0.3,
      N=0.08,
      CO_YIELD=0.042,
      SOOT_YIELD=0.1/

&PROP ID='Cleary Photoelectric P1',
      QUANTITY='CHAMBER OBSCURATION',
      ALPHA_E=1.8,
      BETA_E=-1.0,
      ALPHA_C=1.0,
      BETA_C=-0.8/

&PROP ID='Generic Commercial Link_Generic Commercial Spray',
      QUANTITY='SPRINKLER LINK TEMPERATURE',
      ACTIVATION_TEMPERATURE=68.33,
      RTI=50.0,
      C_FACTOR=0.65,
      PART_ID='Water',
      FLOW_RATE=0.0,
      PARTICLE_VELOCITY=5.0,
      SPRAY_ANGLE=60.0,75.0/

&CTRL ID='HRRCap', FUNCTION_TYPE='ALL', LATCH=.TRUE., INPUT_ID='or-3'/
&CTRL ID='or-3', FUNCTION_TYPE='ANY', LATCH=.FALSE., INPUT_ID='SPRK','SPRK01','SPRK02','SPRK03','SPRK04','SPRK05'/
&CTRL ID='TURNOFFJETFANS', FUNCTION_TYPE='ALL', LATCH=.FALSE., INITIAL_STATE=.TRUE., INPUT_ID='tdelay'/
&CTRL ID='tdelay', FUNCTION_TYPE='TIME_DELAY', DELAY=20.0, LATCH=.FALSE., INPUT_ID='latch'/
&CTRL ID='latch', FUNCTION_TYPE='ALL', LATCH=.TRUE., INPUT_ID='or'/
&CTRL ID='or', FUNCTION_TYPE='ANY', LATCH=.FALSE., INPUT_ID='SD-01','SD-02','SD-03','SD-04','SD-05','SD-06','SD-07','SPRK','SPRK01','SPRK02','SPRK03','SPRK04','SPRK05'/
&CTRL ID='ShuttersClose', FUNCTION_TYPE='TIME_DELAY', DELAY=30.0, LATCH=.FALSE., INPUT_ID='latch-2'/
&CTRL ID='latch-2', FUNCTION_TYPE='ALL', LATCH=.TRUE., INPUT_ID='or-2'/
&CTRL ID='or-2', FUNCTION_TYPE='ANY', LATCH=.FALSE., INPUT_ID='SD-08','SPRK','SPRK01','SPRK02','SPRK03','SPRK04','SPRK05'/
&DEVC ID='TimetoCapHRR', QUANTITY='TIME', XYZ=100.0,100.0,2.5, NO_UPDATE_CTRL_ID='HRRCap'/
&DEVC ID='SD-04', PROP_ID='Cleary Photoelectric P1', XYZ=204.8,129.7,3.75/
&DEVC ID='SD-01', PROP_ID='Cleary Photoelectric P1', XYZ=160.6,129.7,3.9/
&DEVC ID='SD-02', PROP_ID='Cleary Photoelectric P1', XYZ=175.6,129.7,3.9/
&DEVC ID='SD-03', PROP_ID='Cleary Photoelectric P1', XYZ=190.0,131.7,3.75/
&DEVC ID='SD-05', PROP_ID='Cleary Photoelectric P1', XYZ=160.5,145.2,3.75/
&DEVC ID='SD-07', PROP_ID='Cleary Photoelectric P1', XYZ=145.5,145.7,3.9/
&DEVC ID='SPRK', PROP_ID='Generic Commercial Link_Generic Commercial Spray', XYZ=164.5,131.45,3.9/
&DEVC ID='SPRK01', PROP_ID='Generic Commercial Link_Generic Commercial Spray', XYZ=164.5,127.45,3.9/
&DEVC ID='SPRK02', PROP_ID='Generic Commercial Link_Generic Commercial Spray', XYZ=167.5,131.45,3.9/
&DEVC ID='SPRK03', PROP_ID='Generic Commercial Link_Generic Commercial Spray', XYZ=167.5,127.45,3.9/
&DEVC ID='SPRK04', PROP_ID='Generic Commercial Link_Generic Commercial Spray', XYZ=161.5,131.45,3.9/
&DEVC ID='SPRK05', PROP_ID='Generic Commercial Link_Generic Commercial Spray', XYZ=161.5,127.45,3.9/
&DEVC ID='SD-06', PROP_ID='Cleary Photoelectric P1', XYZ=219.8,129.7,3.75/
&DEVC ID='SD-08', PROP_ID='Cleary Photoelectric P1', XYZ=69.75,90.5,3.5/

&MATL ID='CONCRETE',
      FYI='NBSIR 88-3752 - ATF NIST Multi-Floor Validation',
      SPECIFIC_HEAT=1.04,
      CONDUCTIVITY=1.8,
      DENSITY=2280.0/
&MATL ID='STEEL',
      FYI='Drysdale, Intro to Fire Dynamics - ATF NIST Multi-Floor Validation',
      SPECIFIC_HEAT=0.46,
      CONDUCTIVITY=45.8,
      DENSITY=7850.0,
      EMISSIVITY=0.95/

&SURF ID='ADIABATIC',
      COLOR='GRAY 80',
      ADIABATIC=.TRUE./
&SURF ID='CONCRETE_WALLSFLOORS',
      RGB=146,202,166,
      BACKING='INSULATED',
      MATL_ID(1,1)='CONCRETE',
      MATL_MASS_FRACTION(1,1)=1.0,
      THICKNESS(1)=0.2/
&SURF ID='Duct',
      RGB=204,204,255/
&SURF ID='Fire01',
      COLOR='RED',
      HRRPUA=500.0,
      RAMP_Q='Fire01_RAMP_Q'/
&RAMP ID='Fire01_RAMP_Q', T=60.0, F=0.0, DEVC_ID='TimetoCapHRR'/
&RAMP ID='Fire01_RAMP_Q', T=65.0, F=9.38E-3/
&RAMP ID='Fire01_RAMP_Q', T=70.0, F=0.03752/
&RAMP ID='Fire01_RAMP_Q', T=75.0, F=0.08442/
&RAMP ID='Fire01_RAMP_Q', T=80.0, F=0.15008/
&RAMP ID='Fire01_RAMP_Q', T=85.0, F=0.2345/
&RAMP ID='Fire01_RAMP_Q', T=90.0, F=0.33768/
&RAMP ID='Fire01_RAMP_Q', T=95.0, F=0.45962/
&RAMP ID='Fire01_RAMP_Q', T=100.0, F=0.60032/
&RAMP ID='Fire01_RAMP_Q', T=105.0, F=0.75978/
&RAMP ID='Fire01_RAMP_Q', T=110.0, F=0.938/
&RAMP ID='Fire01_RAMP_Q', T=115.0, F=1.0/
&RAMP ID='Fire01_RAMP_Q', T=120.0, F=1.0/
&RAMP ID='Fire01_RAMP_Q', T=125.0, F=1.0/
&RAMP ID='Fire01_RAMP_Q', T=130.0, F=1.0/
&RAMP ID='Fire01_RAMP_Q', T=135.0, F=1.0/
&RAMP ID='Fire01_RAMP_Q', T=140.0, F=1.0/
&RAMP ID='Fire01_RAMP_Q', T=145.0, F=1.0/
&RAMP ID='Fire01_RAMP_Q', T=150.0, F=1.0/
&RAMP ID='Fire01_RAMP_Q', T=155.0, F=1.0/
&RAMP ID='Fire01_RAMP_Q', T=160.0, F=1.0/
&RAMP ID='Fire01_RAMP_Q', T=165.0, F=1.0/
&RAMP ID='Fire01_RAMP_Q', T=170.0, F=1.0/
&RAMP ID='Fire01_RAMP_Q', T=175.0, F=1.0/
&RAMP ID='Fire01_RAMP_Q', T=180.0, F=1.0/
&RAMP ID='Fire01_RAMP_Q', T=185.0, F=1.0/
&RAMP ID='Fire01_RAMP_Q', T=190.0, F=1.0/
&RAMP ID='Fire01_RAMP_Q', T=195.0, F=1.0/
&RAMP ID='Fire01_RAMP_Q', T=200.0, F=1.0/
&RAMP ID='Fire01_RAMP_Q', T=205.0, F=1.0/
&RAMP ID='Fire01_RAMP_Q', T=210.0, F=1.0/
&RAMP ID='Fire01_RAMP_Q', T=215.0, F=1.0/
&RAMP ID='Fire01_RAMP_Q', T=220.0, F=1.0/
&RAMP ID='Fire01_RAMP_Q', T=225.0, F=1.0/
&RAMP ID='Fire01_RAMP_Q', T=230.0, F=1.0/
&RAMP ID='Fire01_RAMP_Q', T=235.0, F=1.0/
&RAMP ID='Fire01_RAMP_Q', T=240.0, F=1.0/
&RAMP ID='Fire01_RAMP_Q', T=245.0, F=1.0/
&RAMP ID='Fire01_RAMP_Q', T=250.0, F=1.0/
&RAMP ID='Fire01_RAMP_Q', T=255.0, F=1.0/
&RAMP ID='Fire01_RAMP_Q', T=260.0, F=1.0/
&RAMP ID='Fire01_RAMP_Q', T=265.0, F=1.0/
&RAMP ID='Fire01_RAMP_Q', T=270.0, F=1.0/
&RAMP ID='Fire01_RAMP_Q', T=275.0, F=1.0/
&RAMP ID='Fire01_RAMP_Q', T=280.0, F=1.0/
&RAMP ID='Fire01_RAMP_Q', T=285.0, F=1.0/
&RAMP ID='Fire01_RAMP_Q', T=290.0, F=1.0/
&RAMP ID='Fire01_RAMP_Q', T=295.0, F=1.0/
&RAMP ID='Fire01_RAMP_Q', T=300.0, F=1.0/
&RAMP ID='Fire01_RAMP_Q', T=305.0, F=1.0/
&RAMP ID='Fire01_RAMP_Q', T=310.0, F=1.0/
&RAMP ID='Fire01_RAMP_Q', T=315.0, F=1.0/
&RAMP ID='Fire01_RAMP_Q', T=320.0, F=1.0/
&RAMP ID='Fire01_RAMP_Q', T=325.0, F=1.0/
&RAMP ID='Fire01_RAMP_Q', T=330.0, F=1.0/
&RAMP ID='Fire01_RAMP_Q', T=335.0, F=1.0/
&RAMP ID='Fire01_RAMP_Q', T=340.0, F=1.0/
&RAMP ID='Fire01_RAMP_Q', T=345.0, F=1.0/
&RAMP ID='Fire01_RAMP_Q', T=350.0, F=1.0/
&RAMP ID='Fire01_RAMP_Q', T=355.0, F=1.0/
&RAMP ID='Fire01_RAMP_Q', T=360.0, F=1.0/
&RAMP ID='Fire01_RAMP_Q', T=365.0, F=1.0/
&RAMP ID='Fire01_RAMP_Q', T=370.0, F=1.0/
&RAMP ID='Fire01_RAMP_Q', T=375.0, F=1.0/
&RAMP ID='Fire01_RAMP_Q', T=380.0, F=1.0/
&RAMP ID='Fire01_RAMP_Q', T=385.0, F=1.0/
&RAMP ID='Fire01_RAMP_Q', T=390.0, F=1.0/
&RAMP ID='Fire01_RAMP_Q', T=395.0, F=1.0/
&RAMP ID='Fire01_RAMP_Q', T=400.0, F=1.0/
&RAMP ID='Fire01_RAMP_Q', T=405.0, F=1.0/
&RAMP ID='Fire01_RAMP_Q', T=410.0, F=1.0/
&RAMP ID='Fire01_RAMP_Q', T=415.0, F=1.0/
&RAMP ID='Fire01_RAMP_Q', T=420.0, F=1.0/
&RAMP ID='Fire01_RAMP_Q', T=425.0, F=1.0/
&RAMP ID='Fire01_RAMP_Q', T=430.0, F=1.0/
&RAMP ID='Fire01_RAMP_Q', T=435.0, F=1.0/
&RAMP ID='Fire01_RAMP_Q', T=440.0, F=1.0/
&SURF ID='Fire02',
      COLOR='RED',
      HRRPUA=500.0,
      RAMP_Q='Fire02_RAMP_Q'/
&RAMP ID='Fire02_RAMP_Q', T=60.0, F=0.0, DEVC_ID='TimetoCapHRR'/
&RAMP ID='Fire02_RAMP_Q', T=65.0, F=0.0/
&RAMP ID='Fire02_RAMP_Q', T=70.0, F=0.0/
&RAMP ID='Fire02_RAMP_Q', T=75.0, F=0.0/
&RAMP ID='Fire02_RAMP_Q', T=80.0, F=0.0/
&RAMP ID='Fire02_RAMP_Q', T=85.0, F=0.0/
&RAMP ID='Fire02_RAMP_Q', T=90.0, F=0.0/
&RAMP ID='Fire02_RAMP_Q', T=95.0, F=0.0/
&RAMP ID='Fire02_RAMP_Q', T=100.0, F=0.0/
&RAMP ID='Fire02_RAMP_Q', T=105.0, F=0.0/
&RAMP ID='Fire02_RAMP_Q', T=110.0, F=0.0/
&RAMP ID='Fire02_RAMP_Q', T=115.0, F=0.06749/
&RAMP ID='Fire02_RAMP_Q', T=120.0, F=0.17536/
&RAMP ID='Fire02_RAMP_Q', T=125.0, F=0.29261/
&RAMP ID='Fire02_RAMP_Q', T=130.0, F=0.41924/
&RAMP ID='Fire02_RAMP_Q', T=135.0, F=0.55525/
&RAMP ID='Fire02_RAMP_Q', T=140.0, F=0.70064/
&RAMP ID='Fire02_RAMP_Q', T=145.0, F=0.85541/
&RAMP ID='Fire02_RAMP_Q', T=150.0, F=1.0/
&RAMP ID='Fire02_RAMP_Q', T=155.0, F=1.0/
&RAMP ID='Fire02_RAMP_Q', T=160.0, F=1.0/
&RAMP ID='Fire02_RAMP_Q', T=165.0, F=1.0/
&RAMP ID='Fire02_RAMP_Q', T=170.0, F=1.0/
&RAMP ID='Fire02_RAMP_Q', T=175.0, F=1.0/
&RAMP ID='Fire02_RAMP_Q', T=180.0, F=1.0/
&RAMP ID='Fire02_RAMP_Q', T=185.0, F=1.0/
&RAMP ID='Fire02_RAMP_Q', T=190.0, F=1.0/
&RAMP ID='Fire02_RAMP_Q', T=195.0, F=1.0/
&RAMP ID='Fire02_RAMP_Q', T=200.0, F=1.0/
&RAMP ID='Fire02_RAMP_Q', T=205.0, F=1.0/
&RAMP ID='Fire02_RAMP_Q', T=210.0, F=1.0/
&RAMP ID='Fire02_RAMP_Q', T=215.0, F=1.0/
&RAMP ID='Fire02_RAMP_Q', T=220.0, F=1.0/
&RAMP ID='Fire02_RAMP_Q', T=225.0, F=1.0/
&RAMP ID='Fire02_RAMP_Q', T=230.0, F=1.0/
&RAMP ID='Fire02_RAMP_Q', T=235.0, F=1.0/
&RAMP ID='Fire02_RAMP_Q', T=240.0, F=1.0/
&RAMP ID='Fire02_RAMP_Q', T=245.0, F=1.0/
&RAMP ID='Fire02_RAMP_Q', T=250.0, F=1.0/
&RAMP ID='Fire02_RAMP_Q', T=255.0, F=1.0/
&RAMP ID='Fire02_RAMP_Q', T=260.0, F=1.0/
&RAMP ID='Fire02_RAMP_Q', T=265.0, F=1.0/
&RAMP ID='Fire02_RAMP_Q', T=270.0, F=1.0/
&RAMP ID='Fire02_RAMP_Q', T=275.0, F=1.0/
&RAMP ID='Fire02_RAMP_Q', T=280.0, F=1.0/
&RAMP ID='Fire02_RAMP_Q', T=285.0, F=1.0/
&RAMP ID='Fire02_RAMP_Q', T=290.0, F=1.0/
&RAMP ID='Fire02_RAMP_Q', T=295.0, F=1.0/
&RAMP ID='Fire02_RAMP_Q', T=300.0, F=1.0/
&RAMP ID='Fire02_RAMP_Q', T=305.0, F=1.0/
&RAMP ID='Fire02_RAMP_Q', T=310.0, F=1.0/
&RAMP ID='Fire02_RAMP_Q', T=315.0, F=1.0/
&RAMP ID='Fire02_RAMP_Q', T=320.0, F=1.0/
&RAMP ID='Fire02_RAMP_Q', T=325.0, F=1.0/
&RAMP ID='Fire02_RAMP_Q', T=330.0, F=1.0/
&RAMP ID='Fire02_RAMP_Q', T=335.0, F=1.0/
&RAMP ID='Fire02_RAMP_Q', T=340.0, F=1.0/
&RAMP ID='Fire02_RAMP_Q', T=345.0, F=1.0/
&RAMP ID='Fire02_RAMP_Q', T=350.0, F=1.0/
&RAMP ID='Fire02_RAMP_Q', T=355.0, F=1.0/
&RAMP ID='Fire02_RAMP_Q', T=360.0, F=1.0/
&RAMP ID='Fire02_RAMP_Q', T=365.0, F=1.0/
&RAMP ID='Fire02_RAMP_Q', T=370.0, F=1.0/
&RAMP ID='Fire02_RAMP_Q', T=375.0, F=1.0/
&RAMP ID='Fire02_RAMP_Q', T=380.0, F=1.0/
&RAMP ID='Fire02_RAMP_Q', T=385.0, F=1.0/
&RAMP ID='Fire02_RAMP_Q', T=390.0, F=1.0/
&RAMP ID='Fire02_RAMP_Q', T=395.0, F=1.0/
&RAMP ID='Fire02_RAMP_Q', T=400.0, F=1.0/
&RAMP ID='Fire02_RAMP_Q', T=405.0, F=1.0/
&RAMP ID='Fire02_RAMP_Q', T=410.0, F=1.0/
&RAMP ID='Fire02_RAMP_Q', T=415.0, F=1.0/
&RAMP ID='Fire02_RAMP_Q', T=420.0, F=1.0/
&RAMP ID='Fire02_RAMP_Q', T=425.0, F=1.0/
&RAMP ID='Fire02_RAMP_Q', T=430.0, F=1.0/
&RAMP ID='Fire02_RAMP_Q', T=435.0, F=1.0/
&RAMP ID='Fire02_RAMP_Q', T=440.0, F=1.0/
&SURF ID='Fire03',
      COLOR='RED',
      HRRPUA=500.0,
      RAMP_Q='Fire03_RAMP_Q'/
&RAMP ID='Fire03_RAMP_Q', T=60.0, F=0.0, DEVC_ID='TimetoCapHRR'/
&RAMP ID='Fire03_RAMP_Q', T=65.0, F=0.0/
&RAMP ID='Fire03_RAMP_Q', T=70.0, F=0.0/
&RAMP ID='Fire03_RAMP_Q', T=75.0, F=0.0/
&RAMP ID='Fire03_RAMP_Q', T=80.0, F=0.0/
&RAMP ID='Fire03_RAMP_Q', T=85.0, F=0.0/
&RAMP ID='Fire03_RAMP_Q', T=90.0, F=0.0/
&RAMP ID='Fire03_RAMP_Q', T=95.0, F=0.0/
&RAMP ID='Fire03_RAMP_Q', T=100.0, F=0.0/
&RAMP ID='Fire03_RAMP_Q', T=105.0, F=0.0/
&RAMP ID='Fire03_RAMP_Q', T=110.0, F=0.0/
&RAMP ID='Fire03_RAMP_Q', T=115.0, F=0.0/
&RAMP ID='Fire03_RAMP_Q', T=120.0, F=0.0/
&RAMP ID='Fire03_RAMP_Q', T=125.0, F=0.0/
&RAMP ID='Fire03_RAMP_Q', T=130.0, F=0.0/
&RAMP ID='Fire03_RAMP_Q', T=135.0, F=0.0/
&RAMP ID='Fire03_RAMP_Q', T=140.0, F=0.0/
&RAMP ID='Fire03_RAMP_Q', T=145.0, F=0.0/
&RAMP ID='Fire03_RAMP_Q', T=150.0, F=7.824E-3/
&RAMP ID='Fire03_RAMP_Q', T=155.0, F=0.077236/
&RAMP ID='Fire03_RAMP_Q', T=160.0, F=0.1504/
&RAMP ID='Fire03_RAMP_Q', T=165.0, F=0.227316/
&RAMP ID='Fire03_RAMP_Q', T=170.0, F=0.307984/
&RAMP ID='Fire03_RAMP_Q', T=175.0, F=0.392404/
&RAMP ID='Fire03_RAMP_Q', T=180.0, F=0.480576/
&RAMP ID='Fire03_RAMP_Q', T=185.0, F=0.5725/
&RAMP ID='Fire03_RAMP_Q', T=190.0, F=0.668176/
&RAMP ID='Fire03_RAMP_Q', T=195.0, F=0.767604/
&RAMP ID='Fire03_RAMP_Q', T=200.0, F=0.870784/
&RAMP ID='Fire03_RAMP_Q', T=205.0, F=0.977716/
&RAMP ID='Fire03_RAMP_Q', T=210.0, F=1.0/
&RAMP ID='Fire03_RAMP_Q', T=215.0, F=1.0/
&RAMP ID='Fire03_RAMP_Q', T=220.0, F=1.0/
&RAMP ID='Fire03_RAMP_Q', T=225.0, F=1.0/
&RAMP ID='Fire03_RAMP_Q', T=230.0, F=1.0/
&RAMP ID='Fire03_RAMP_Q', T=235.0, F=1.0/
&RAMP ID='Fire03_RAMP_Q', T=240.0, F=1.0/
&RAMP ID='Fire03_RAMP_Q', T=245.0, F=1.0/
&RAMP ID='Fire03_RAMP_Q', T=250.0, F=1.0/
&RAMP ID='Fire03_RAMP_Q', T=255.0, F=1.0/
&RAMP ID='Fire03_RAMP_Q', T=260.0, F=1.0/
&RAMP ID='Fire03_RAMP_Q', T=265.0, F=1.0/
&RAMP ID='Fire03_RAMP_Q', T=270.0, F=1.0/
&RAMP ID='Fire03_RAMP_Q', T=275.0, F=1.0/
&RAMP ID='Fire03_RAMP_Q', T=280.0, F=1.0/
&RAMP ID='Fire03_RAMP_Q', T=285.0, F=1.0/
&RAMP ID='Fire03_RAMP_Q', T=290.0, F=1.0/
&RAMP ID='Fire03_RAMP_Q', T=295.0, F=1.0/
&RAMP ID='Fire03_RAMP_Q', T=300.0, F=1.0/
&RAMP ID='Fire03_RAMP_Q', T=305.0, F=1.0/
&RAMP ID='Fire03_RAMP_Q', T=310.0, F=1.0/
&RAMP ID='Fire03_RAMP_Q', T=315.0, F=1.0/
&RAMP ID='Fire03_RAMP_Q', T=320.0, F=1.0/
&RAMP ID='Fire03_RAMP_Q', T=325.0, F=1.0/
&RAMP ID='Fire03_RAMP_Q', T=330.0, F=1.0/
&RAMP ID='Fire03_RAMP_Q', T=335.0, F=1.0/
&RAMP ID='Fire03_RAMP_Q', T=340.0, F=1.0/
&RAMP ID='Fire03_RAMP_Q', T=345.0, F=1.0/
&RAMP ID='Fire03_RAMP_Q', T=350.0, F=1.0/
&RAMP ID='Fire03_RAMP_Q', T=355.0, F=1.0/
&RAMP ID='Fire03_RAMP_Q', T=360.0, F=1.0/
&RAMP ID='Fire03_RAMP_Q', T=365.0, F=1.0/
&RAMP ID='Fire03_RAMP_Q', T=370.0, F=1.0/
&RAMP ID='Fire03_RAMP_Q', T=375.0, F=1.0/
&RAMP ID='Fire03_RAMP_Q', T=380.0, F=1.0/
&RAMP ID='Fire03_RAMP_Q', T=385.0, F=1.0/
&RAMP ID='Fire03_RAMP_Q', T=390.0, F=1.0/
&RAMP ID='Fire03_RAMP_Q', T=395.0, F=1.0/
&RAMP ID='Fire03_RAMP_Q', T=400.0, F=1.0/
&RAMP ID='Fire03_RAMP_Q', T=405.0, F=1.0/
&RAMP ID='Fire03_RAMP_Q', T=410.0, F=1.0/
&RAMP ID='Fire03_RAMP_Q', T=415.0, F=1.0/
&RAMP ID='Fire03_RAMP_Q', T=420.0, F=1.0/
&RAMP ID='Fire03_RAMP_Q', T=425.0, F=1.0/
&RAMP ID='Fire03_RAMP_Q', T=430.0, F=1.0/
&RAMP ID='Fire03_RAMP_Q', T=435.0, F=1.0/
&RAMP ID='Fire03_RAMP_Q', T=440.0, F=1.0/
&SURF ID='Fire04',
      COLOR='RED',
      HRRPUA=500.0,
      RAMP_Q='Fire04_RAMP_Q'/
&RAMP ID='Fire04_RAMP_Q', T=60.0, F=0.0, DEVC_ID='TimetoCapHRR'/
&RAMP ID='Fire04_RAMP_Q', T=65.0, F=0.0/
&RAMP ID='Fire04_RAMP_Q', T=70.0, F=0.0/
&RAMP ID='Fire04_RAMP_Q', T=75.0, F=0.0/
&RAMP ID='Fire04_RAMP_Q', T=80.0, F=0.0/
&RAMP ID='Fire04_RAMP_Q', T=85.0, F=0.0/
&RAMP ID='Fire04_RAMP_Q', T=90.0, F=0.0/
&RAMP ID='Fire04_RAMP_Q', T=95.0, F=0.0/
&RAMP ID='Fire04_RAMP_Q', T=100.0, F=0.0/
&RAMP ID='Fire04_RAMP_Q', T=105.0, F=0.0/
&RAMP ID='Fire04_RAMP_Q', T=110.0, F=0.0/
&RAMP ID='Fire04_RAMP_Q', T=115.0, F=0.0/
&RAMP ID='Fire04_RAMP_Q', T=120.0, F=0.0/
&RAMP ID='Fire04_RAMP_Q', T=125.0, F=0.0/
&RAMP ID='Fire04_RAMP_Q', T=130.0, F=0.0/
&RAMP ID='Fire04_RAMP_Q', T=135.0, F=0.0/
&RAMP ID='Fire04_RAMP_Q', T=140.0, F=0.0/
&RAMP ID='Fire04_RAMP_Q', T=145.0, F=0.0/
&RAMP ID='Fire04_RAMP_Q', T=150.0, F=0.0/
&RAMP ID='Fire04_RAMP_Q', T=155.0, F=0.0/
&RAMP ID='Fire04_RAMP_Q', T=160.0, F=0.0/
&RAMP ID='Fire04_RAMP_Q', T=165.0, F=0.0/
&RAMP ID='Fire04_RAMP_Q', T=170.0, F=0.0/
&RAMP ID='Fire04_RAMP_Q', T=175.0, F=0.0/
&RAMP ID='Fire04_RAMP_Q', T=180.0, F=0.0/
&RAMP ID='Fire04_RAMP_Q', T=185.0, F=0.0/
&RAMP ID='Fire04_RAMP_Q', T=190.0, F=0.0/
&RAMP ID='Fire04_RAMP_Q', T=195.0, F=0.0/
&RAMP ID='Fire04_RAMP_Q', T=200.0, F=0.0/
&RAMP ID='Fire04_RAMP_Q', T=205.0, F=0.0/
&RAMP ID='Fire04_RAMP_Q', T=210.0, F=0.0884/
&RAMP ID='Fire04_RAMP_Q', T=215.0, F=0.202836/
&RAMP ID='Fire04_RAMP_Q', T=220.0, F=0.321024/
&RAMP ID='Fire04_RAMP_Q', T=225.0, F=0.442964/
&RAMP ID='Fire04_RAMP_Q', T=230.0, F=0.568656/
&RAMP ID='Fire04_RAMP_Q', T=235.0, F=0.6981/
&RAMP ID='Fire04_RAMP_Q', T=240.0, F=0.831296/
&RAMP ID='Fire04_RAMP_Q', T=245.0, F=0.968244/
&RAMP ID='Fire04_RAMP_Q', T=250.0, F=1.0/
&RAMP ID='Fire04_RAMP_Q', T=255.0, F=1.0/
&RAMP ID='Fire04_RAMP_Q', T=260.0, F=1.0/
&RAMP ID='Fire04_RAMP_Q', T=265.0, F=1.0/
&RAMP ID='Fire04_RAMP_Q', T=270.0, F=1.0/
&RAMP ID='Fire04_RAMP_Q', T=275.0, F=1.0/
&RAMP ID='Fire04_RAMP_Q', T=280.0, F=1.0/
&RAMP ID='Fire04_RAMP_Q', T=285.0, F=1.0/
&RAMP ID='Fire04_RAMP_Q', T=290.0, F=1.0/
&RAMP ID='Fire04_RAMP_Q', T=295.0, F=1.0/
&RAMP ID='Fire04_RAMP_Q', T=300.0, F=1.0/
&RAMP ID='Fire04_RAMP_Q', T=305.0, F=1.0/
&RAMP ID='Fire04_RAMP_Q', T=310.0, F=1.0/
&RAMP ID='Fire04_RAMP_Q', T=315.0, F=1.0/
&RAMP ID='Fire04_RAMP_Q', T=320.0, F=1.0/
&RAMP ID='Fire04_RAMP_Q', T=325.0, F=1.0/
&RAMP ID='Fire04_RAMP_Q', T=330.0, F=1.0/
&RAMP ID='Fire04_RAMP_Q', T=335.0, F=1.0/
&RAMP ID='Fire04_RAMP_Q', T=340.0, F=1.0/
&RAMP ID='Fire04_RAMP_Q', T=345.0, F=1.0/
&RAMP ID='Fire04_RAMP_Q', T=350.0, F=1.0/
&RAMP ID='Fire04_RAMP_Q', T=355.0, F=1.0/
&RAMP ID='Fire04_RAMP_Q', T=360.0, F=1.0/
&RAMP ID='Fire04_RAMP_Q', T=365.0, F=1.0/
&RAMP ID='Fire04_RAMP_Q', T=370.0, F=1.0/
&RAMP ID='Fire04_RAMP_Q', T=375.0, F=1.0/
&RAMP ID='Fire04_RAMP_Q', T=380.0, F=1.0/
&RAMP ID='Fire04_RAMP_Q', T=385.0, F=1.0/
&RAMP ID='Fire04_RAMP_Q', T=390.0, F=1.0/
&RAMP ID='Fire04_RAMP_Q', T=395.0, F=1.0/
&RAMP ID='Fire04_RAMP_Q', T=400.0, F=1.0/
&RAMP ID='Fire04_RAMP_Q', T=405.0, F=1.0/
&RAMP ID='Fire04_RAMP_Q', T=410.0, F=1.0/
&RAMP ID='Fire04_RAMP_Q', T=415.0, F=1.0/
&RAMP ID='Fire04_RAMP_Q', T=420.0, F=1.0/
&RAMP ID='Fire04_RAMP_Q', T=425.0, F=1.0/
&RAMP ID='Fire04_RAMP_Q', T=430.0, F=1.0/
&RAMP ID='Fire04_RAMP_Q', T=435.0, F=1.0/
&RAMP ID='Fire04_RAMP_Q', T=440.0, F=1.0/
&SURF ID='Fire05',
      COLOR='RED',
      HRRPUA=500.0,
      RAMP_Q='Fire05_RAMP_Q'/
&RAMP ID='Fire05_RAMP_Q', T=60.0, F=0.0, DEVC_ID='TimetoCapHRR'/
&RAMP ID='Fire05_RAMP_Q', T=65.0, F=0.0/
&RAMP ID='Fire05_RAMP_Q', T=70.0, F=0.0/
&RAMP ID='Fire05_RAMP_Q', T=75.0, F=0.0/
&RAMP ID='Fire05_RAMP_Q', T=80.0, F=0.0/
&RAMP ID='Fire05_RAMP_Q', T=85.0, F=0.0/
&RAMP ID='Fire05_RAMP_Q', T=90.0, F=0.0/
&RAMP ID='Fire05_RAMP_Q', T=95.0, F=0.0/
&RAMP ID='Fire05_RAMP_Q', T=100.0, F=0.0/
&RAMP ID='Fire05_RAMP_Q', T=105.0, F=0.0/
&RAMP ID='Fire05_RAMP_Q', T=110.0, F=0.0/
&RAMP ID='Fire05_RAMP_Q', T=115.0, F=0.0/
&RAMP ID='Fire05_RAMP_Q', T=120.0, F=0.0/
&RAMP ID='Fire05_RAMP_Q', T=125.0, F=0.0/
&RAMP ID='Fire05_RAMP_Q', T=130.0, F=0.0/
&RAMP ID='Fire05_RAMP_Q', T=135.0, F=0.0/
&RAMP ID='Fire05_RAMP_Q', T=140.0, F=0.0/
&RAMP ID='Fire05_RAMP_Q', T=145.0, F=0.0/
&RAMP ID='Fire05_RAMP_Q', T=150.0, F=0.0/
&RAMP ID='Fire05_RAMP_Q', T=155.0, F=0.0/
&RAMP ID='Fire05_RAMP_Q', T=160.0, F=0.0/
&RAMP ID='Fire05_RAMP_Q', T=165.0, F=0.0/
&RAMP ID='Fire05_RAMP_Q', T=170.0, F=0.0/
&RAMP ID='Fire05_RAMP_Q', T=175.0, F=0.0/
&RAMP ID='Fire05_RAMP_Q', T=180.0, F=0.0/
&RAMP ID='Fire05_RAMP_Q', T=185.0, F=0.0/
&RAMP ID='Fire05_RAMP_Q', T=190.0, F=0.0/
&RAMP ID='Fire05_RAMP_Q', T=195.0, F=0.0/
&RAMP ID='Fire05_RAMP_Q', T=200.0, F=0.0/
&RAMP ID='Fire05_RAMP_Q', T=205.0, F=0.0/
&RAMP ID='Fire05_RAMP_Q', T=210.0, F=0.0/
&RAMP ID='Fire05_RAMP_Q', T=215.0, F=0.0/
&RAMP ID='Fire05_RAMP_Q', T=220.0, F=0.0/
&RAMP ID='Fire05_RAMP_Q', T=225.0, F=0.0/
&RAMP ID='Fire05_RAMP_Q', T=230.0, F=0.0/
&RAMP ID='Fire05_RAMP_Q', T=235.0, F=0.0/
&RAMP ID='Fire05_RAMP_Q', T=240.0, F=0.0/
&RAMP ID='Fire05_RAMP_Q', T=245.0, F=0.0/
&RAMP ID='Fire05_RAMP_Q', T=250.0, F=0.090787/
&RAMP ID='Fire05_RAMP_Q', T=255.0, F=0.211163/
&RAMP ID='Fire05_RAMP_Q', T=260.0, F=0.334667/
&RAMP ID='Fire05_RAMP_Q', T=265.0, F=0.461297/
&RAMP ID='Fire05_RAMP_Q', T=270.0, F=0.591053/
&RAMP ID='Fire05_RAMP_Q', T=275.0, F=0.723937/
&RAMP ID='Fire05_RAMP_Q', T=280.0, F=0.859947/
&RAMP ID='Fire05_RAMP_Q', T=285.0, F=0.999083/
&RAMP ID='Fire05_RAMP_Q', T=290.0, F=1.0/
&RAMP ID='Fire05_RAMP_Q', T=295.0, F=1.0/
&RAMP ID='Fire05_RAMP_Q', T=300.0, F=1.0/
&RAMP ID='Fire05_RAMP_Q', T=305.0, F=1.0/
&RAMP ID='Fire05_RAMP_Q', T=310.0, F=1.0/
&RAMP ID='Fire05_RAMP_Q', T=315.0, F=1.0/
&RAMP ID='Fire05_RAMP_Q', T=320.0, F=1.0/
&RAMP ID='Fire05_RAMP_Q', T=325.0, F=1.0/
&RAMP ID='Fire05_RAMP_Q', T=330.0, F=1.0/
&RAMP ID='Fire05_RAMP_Q', T=335.0, F=1.0/
&RAMP ID='Fire05_RAMP_Q', T=340.0, F=1.0/
&RAMP ID='Fire05_RAMP_Q', T=345.0, F=1.0/
&RAMP ID='Fire05_RAMP_Q', T=350.0, F=1.0/
&RAMP ID='Fire05_RAMP_Q', T=355.0, F=1.0/
&RAMP ID='Fire05_RAMP_Q', T=360.0, F=1.0/
&RAMP ID='Fire05_RAMP_Q', T=365.0, F=1.0/
&RAMP ID='Fire05_RAMP_Q', T=370.0, F=1.0/
&RAMP ID='Fire05_RAMP_Q', T=375.0, F=1.0/
&RAMP ID='Fire05_RAMP_Q', T=380.0, F=1.0/
&RAMP ID='Fire05_RAMP_Q', T=385.0, F=1.0/
&RAMP ID='Fire05_RAMP_Q', T=390.0, F=1.0/
&RAMP ID='Fire05_RAMP_Q', T=395.0, F=1.0/
&RAMP ID='Fire05_RAMP_Q', T=400.0, F=1.0/
&RAMP ID='Fire05_RAMP_Q', T=405.0, F=1.0/
&RAMP ID='Fire05_RAMP_Q', T=410.0, F=1.0/
&RAMP ID='Fire05_RAMP_Q', T=415.0, F=1.0/
&RAMP ID='Fire05_RAMP_Q', T=420.0, F=1.0/
&RAMP ID='Fire05_RAMP_Q', T=425.0, F=1.0/
&RAMP ID='Fire05_RAMP_Q', T=430.0, F=1.0/
&RAMP ID='Fire05_RAMP_Q', T=435.0, F=1.0/
&RAMP ID='Fire05_RAMP_Q', T=440.0, F=1.0/
&SURF ID='Fire06',
      COLOR='RED',
      HRRPUA=500.0,
      RAMP_Q='Fire06_RAMP_Q'/
&RAMP ID='Fire06_RAMP_Q', T=60.0, F=0.0, DEVC_ID='TimetoCapHRR'/
&RAMP ID='Fire06_RAMP_Q', T=65.0, F=0.0/
&RAMP ID='Fire06_RAMP_Q', T=70.0, F=0.0/
&RAMP ID='Fire06_RAMP_Q', T=75.0, F=0.0/
&RAMP ID='Fire06_RAMP_Q', T=80.0, F=0.0/
&RAMP ID='Fire06_RAMP_Q', T=85.0, F=0.0/
&RAMP ID='Fire06_RAMP_Q', T=90.0, F=0.0/
&RAMP ID='Fire06_RAMP_Q', T=95.0, F=0.0/
&RAMP ID='Fire06_RAMP_Q', T=100.0, F=0.0/
&RAMP ID='Fire06_RAMP_Q', T=105.0, F=0.0/
&RAMP ID='Fire06_RAMP_Q', T=110.0, F=0.0/
&RAMP ID='Fire06_RAMP_Q', T=115.0, F=0.0/
&RAMP ID='Fire06_RAMP_Q', T=120.0, F=0.0/
&RAMP ID='Fire06_RAMP_Q', T=125.0, F=0.0/
&RAMP ID='Fire06_RAMP_Q', T=130.0, F=0.0/
&RAMP ID='Fire06_RAMP_Q', T=135.0, F=0.0/
&RAMP ID='Fire06_RAMP_Q', T=140.0, F=0.0/
&RAMP ID='Fire06_RAMP_Q', T=145.0, F=0.0/
&RAMP ID='Fire06_RAMP_Q', T=150.0, F=0.0/
&RAMP ID='Fire06_RAMP_Q', T=155.0, F=0.0/
&RAMP ID='Fire06_RAMP_Q', T=160.0, F=0.0/
&RAMP ID='Fire06_RAMP_Q', T=165.0, F=0.0/
&RAMP ID='Fire06_RAMP_Q', T=170.0, F=0.0/
&RAMP ID='Fire06_RAMP_Q', T=175.0, F=0.0/
&RAMP ID='Fire06_RAMP_Q', T=180.0, F=0.0/
&RAMP ID='Fire06_RAMP_Q', T=185.0, F=0.0/
&RAMP ID='Fire06_RAMP_Q', T=190.0, F=0.0/
&RAMP ID='Fire06_RAMP_Q', T=195.0, F=0.0/
&RAMP ID='Fire06_RAMP_Q', T=200.0, F=0.0/
&RAMP ID='Fire06_RAMP_Q', T=205.0, F=0.0/
&RAMP ID='Fire06_RAMP_Q', T=210.0, F=0.0/
&RAMP ID='Fire06_RAMP_Q', T=215.0, F=0.0/
&RAMP ID='Fire06_RAMP_Q', T=220.0, F=0.0/
&RAMP ID='Fire06_RAMP_Q', T=225.0, F=0.0/
&RAMP ID='Fire06_RAMP_Q', T=230.0, F=0.0/
&RAMP ID='Fire06_RAMP_Q', T=235.0, F=0.0/
&RAMP ID='Fire06_RAMP_Q', T=240.0, F=0.0/
&RAMP ID='Fire06_RAMP_Q', T=245.0, F=0.0/
&RAMP ID='Fire06_RAMP_Q', T=250.0, F=0.0/
&RAMP ID='Fire06_RAMP_Q', T=255.0, F=0.0/
&RAMP ID='Fire06_RAMP_Q', T=260.0, F=0.0/
&RAMP ID='Fire06_RAMP_Q', T=265.0, F=0.0/
&RAMP ID='Fire06_RAMP_Q', T=270.0, F=0.0/
&RAMP ID='Fire06_RAMP_Q', T=275.0, F=0.0/
&RAMP ID='Fire06_RAMP_Q', T=280.0, F=0.0/
&RAMP ID='Fire06_RAMP_Q', T=285.0, F=0.0/
&RAMP ID='Fire06_RAMP_Q', T=290.0, F=0.094231/
&RAMP ID='Fire06_RAMP_Q', T=295.0, F=0.191158/
&RAMP ID='Fire06_RAMP_Q', T=300.0, F=0.290169/
&RAMP ID='Fire06_RAMP_Q', T=305.0, F=0.391264/
&RAMP ID='Fire06_RAMP_Q', T=310.0, F=0.494444/
&RAMP ID='Fire06_RAMP_Q', T=315.0, F=0.599709/
&RAMP ID='Fire06_RAMP_Q', T=320.0, F=0.707058/
&RAMP ID='Fire06_RAMP_Q', T=325.0, F=0.816491/
&RAMP ID='Fire06_RAMP_Q', T=330.0, F=0.928009/
&RAMP ID='Fire06_RAMP_Q', T=335.0, F=1.0/
&RAMP ID='Fire06_RAMP_Q', T=340.0, F=1.0/
&RAMP ID='Fire06_RAMP_Q', T=345.0, F=1.0/
&RAMP ID='Fire06_RAMP_Q', T=350.0, F=1.0/
&RAMP ID='Fire06_RAMP_Q', T=355.0, F=1.0/
&RAMP ID='Fire06_RAMP_Q', T=360.0, F=1.0/
&RAMP ID='Fire06_RAMP_Q', T=365.0, F=1.0/
&RAMP ID='Fire06_RAMP_Q', T=370.0, F=1.0/
&RAMP ID='Fire06_RAMP_Q', T=375.0, F=1.0/
&RAMP ID='Fire06_RAMP_Q', T=380.0, F=1.0/
&RAMP ID='Fire06_RAMP_Q', T=385.0, F=1.0/
&RAMP ID='Fire06_RAMP_Q', T=390.0, F=1.0/
&RAMP ID='Fire06_RAMP_Q', T=395.0, F=1.0/
&RAMP ID='Fire06_RAMP_Q', T=400.0, F=1.0/
&RAMP ID='Fire06_RAMP_Q', T=405.0, F=1.0/
&RAMP ID='Fire06_RAMP_Q', T=410.0, F=1.0/
&RAMP ID='Fire06_RAMP_Q', T=415.0, F=1.0/
&RAMP ID='Fire06_RAMP_Q', T=420.0, F=1.0/
&RAMP ID='Fire06_RAMP_Q', T=425.0, F=1.0/
&RAMP ID='Fire06_RAMP_Q', T=430.0, F=1.0/
&RAMP ID='Fire06_RAMP_Q', T=435.0, F=1.0/
&RAMP ID='Fire06_RAMP_Q', T=440.0, F=1.0/
&SURF ID='Fire07',
      COLOR='RED',
      HRRPUA=500.0,
      RAMP_Q='Fire07_RAMP_Q'/
&RAMP ID='Fire07_RAMP_Q', T=60.0, F=0.0, DEVC_ID='TimetoCapHRR'/
&RAMP ID='Fire07_RAMP_Q', T=65.0, F=0.0/
&RAMP ID='Fire07_RAMP_Q', T=70.0, F=0.0/
&RAMP ID='Fire07_RAMP_Q', T=75.0, F=0.0/
&RAMP ID='Fire07_RAMP_Q', T=80.0, F=0.0/
&RAMP ID='Fire07_RAMP_Q', T=85.0, F=0.0/
&RAMP ID='Fire07_RAMP_Q', T=90.0, F=0.0/
&RAMP ID='Fire07_RAMP_Q', T=95.0, F=0.0/
&RAMP ID='Fire07_RAMP_Q', T=100.0, F=0.0/
&RAMP ID='Fire07_RAMP_Q', T=105.0, F=0.0/
&RAMP ID='Fire07_RAMP_Q', T=110.0, F=0.0/
&RAMP ID='Fire07_RAMP_Q', T=115.0, F=0.0/
&RAMP ID='Fire07_RAMP_Q', T=120.0, F=0.0/
&RAMP ID='Fire07_RAMP_Q', T=125.0, F=0.0/
&RAMP ID='Fire07_RAMP_Q', T=130.0, F=0.0/
&RAMP ID='Fire07_RAMP_Q', T=135.0, F=0.0/
&RAMP ID='Fire07_RAMP_Q', T=140.0, F=0.0/
&RAMP ID='Fire07_RAMP_Q', T=145.0, F=0.0/
&RAMP ID='Fire07_RAMP_Q', T=150.0, F=0.0/
&RAMP ID='Fire07_RAMP_Q', T=155.0, F=0.0/
&RAMP ID='Fire07_RAMP_Q', T=160.0, F=0.0/
&RAMP ID='Fire07_RAMP_Q', T=165.0, F=0.0/
&RAMP ID='Fire07_RAMP_Q', T=170.0, F=0.0/
&RAMP ID='Fire07_RAMP_Q', T=175.0, F=0.0/
&RAMP ID='Fire07_RAMP_Q', T=180.0, F=0.0/
&RAMP ID='Fire07_RAMP_Q', T=185.0, F=0.0/
&RAMP ID='Fire07_RAMP_Q', T=190.0, F=0.0/
&RAMP ID='Fire07_RAMP_Q', T=195.0, F=0.0/
&RAMP ID='Fire07_RAMP_Q', T=200.0, F=0.0/
&RAMP ID='Fire07_RAMP_Q', T=205.0, F=0.0/
&RAMP ID='Fire07_RAMP_Q', T=210.0, F=0.0/
&RAMP ID='Fire07_RAMP_Q', T=215.0, F=0.0/
&RAMP ID='Fire07_RAMP_Q', T=220.0, F=0.0/
&RAMP ID='Fire07_RAMP_Q', T=225.0, F=0.0/
&RAMP ID='Fire07_RAMP_Q', T=230.0, F=0.0/
&RAMP ID='Fire07_RAMP_Q', T=235.0, F=0.0/
&RAMP ID='Fire07_RAMP_Q', T=240.0, F=0.0/
&RAMP ID='Fire07_RAMP_Q', T=245.0, F=0.0/
&RAMP ID='Fire07_RAMP_Q', T=250.0, F=0.0/
&RAMP ID='Fire07_RAMP_Q', T=255.0, F=0.0/
&RAMP ID='Fire07_RAMP_Q', T=260.0, F=0.0/
&RAMP ID='Fire07_RAMP_Q', T=265.0, F=0.0/
&RAMP ID='Fire07_RAMP_Q', T=270.0, F=0.0/
&RAMP ID='Fire07_RAMP_Q', T=275.0, F=0.0/
&RAMP ID='Fire07_RAMP_Q', T=280.0, F=0.0/
&RAMP ID='Fire07_RAMP_Q', T=285.0, F=0.0/
&RAMP ID='Fire07_RAMP_Q', T=290.0, F=0.0/
&RAMP ID='Fire07_RAMP_Q', T=295.0, F=0.0/
&RAMP ID='Fire07_RAMP_Q', T=300.0, F=0.0/
&RAMP ID='Fire07_RAMP_Q', T=305.0, F=0.0/
&RAMP ID='Fire07_RAMP_Q', T=310.0, F=0.0/
&RAMP ID='Fire07_RAMP_Q', T=315.0, F=0.0/
&RAMP ID='Fire07_RAMP_Q', T=320.0, F=0.0/
&RAMP ID='Fire07_RAMP_Q', T=325.0, F=0.0/
&RAMP ID='Fire07_RAMP_Q', T=330.0, F=0.0/
&RAMP ID='Fire07_RAMP_Q', T=335.0, F=0.041611/
&RAMP ID='Fire07_RAMP_Q', T=340.0, F=0.157298/
&RAMP ID='Fire07_RAMP_Q', T=345.0, F=0.275069/
&RAMP ID='Fire07_RAMP_Q', T=350.0, F=0.394924/
&RAMP ID='Fire07_RAMP_Q', T=355.0, F=0.516864/
&RAMP ID='Fire07_RAMP_Q', T=360.0, F=0.640889/
&RAMP ID='Fire07_RAMP_Q', T=365.0, F=0.766998/
&RAMP ID='Fire07_RAMP_Q', T=370.0, F=0.895191/
&RAMP ID='Fire07_RAMP_Q', T=375.0, F=1.0/
&RAMP ID='Fire07_RAMP_Q', T=380.0, F=1.0/
&RAMP ID='Fire07_RAMP_Q', T=385.0, F=1.0/
&RAMP ID='Fire07_RAMP_Q', T=390.0, F=1.0/
&RAMP ID='Fire07_RAMP_Q', T=395.0, F=1.0/
&RAMP ID='Fire07_RAMP_Q', T=400.0, F=1.0/
&RAMP ID='Fire07_RAMP_Q', T=405.0, F=1.0/
&RAMP ID='Fire07_RAMP_Q', T=410.0, F=1.0/
&RAMP ID='Fire07_RAMP_Q', T=415.0, F=1.0/
&RAMP ID='Fire07_RAMP_Q', T=420.0, F=1.0/
&RAMP ID='Fire07_RAMP_Q', T=425.0, F=1.0/
&RAMP ID='Fire07_RAMP_Q', T=430.0, F=1.0/
&RAMP ID='Fire07_RAMP_Q', T=435.0, F=1.0/
&RAMP ID='Fire07_RAMP_Q', T=440.0, F=1.0/
&SURF ID='Fire08',
      COLOR='RED',
      HRRPUA=500.0,
      RAMP_Q='Fire08_RAMP_Q'/
&RAMP ID='Fire08_RAMP_Q', T=60.0, F=0.0, DEVC_ID='TimetoCapHRR'/
&RAMP ID='Fire08_RAMP_Q', T=65.0, F=0.0/
&RAMP ID='Fire08_RAMP_Q', T=70.0, F=0.0/
&RAMP ID='Fire08_RAMP_Q', T=75.0, F=0.0/
&RAMP ID='Fire08_RAMP_Q', T=80.0, F=0.0/
&RAMP ID='Fire08_RAMP_Q', T=85.0, F=0.0/
&RAMP ID='Fire08_RAMP_Q', T=90.0, F=0.0/
&RAMP ID='Fire08_RAMP_Q', T=95.0, F=0.0/
&RAMP ID='Fire08_RAMP_Q', T=100.0, F=0.0/
&RAMP ID='Fire08_RAMP_Q', T=105.0, F=0.0/
&RAMP ID='Fire08_RAMP_Q', T=110.0, F=0.0/
&RAMP ID='Fire08_RAMP_Q', T=115.0, F=0.0/
&RAMP ID='Fire08_RAMP_Q', T=120.0, F=0.0/
&RAMP ID='Fire08_RAMP_Q', T=125.0, F=0.0/
&RAMP ID='Fire08_RAMP_Q', T=130.0, F=0.0/
&RAMP ID='Fire08_RAMP_Q', T=135.0, F=0.0/
&RAMP ID='Fire08_RAMP_Q', T=140.0, F=0.0/